*HEADING
Beam Model — Section Force Output for ADB Testing
*NODE, NSET=ALL_NODES
1, 0.0, 0.0, 0.0
2, 100.0, 0.0, 0.0
3, 200.0, 0.0, 0.0
4, 0.0, 0.0, 0.0
5, 100.0, 0.0, 0.0
6, 200.0, 0.0, 0.0
*NSET, NSET=FIXED_END
1, 4
*NSET, NSET=FREE_END
3, 6
*ELEMENT, TYPE=B31, ELSET=BEAM_ELEMENTS
1, 1, 2
2, 2, 3
*ELSET, ELSET=BEAM1
1
*ELSET, ELSET=BEAM2
2
*BEAM SECTION, ELSET=BEAM_ELEMENTS, MATERIAL=STEEL, SECTION=RECT
10.0, 20.0
0.0, 1.0, 0.0
*MATERIAL, NAME=STEEL
*ELASTIC
210000.0, 0.3
*STEP, NAME=Step-1
*STATIC
1.0, 1.0, 0.1, 1.0
*BOUNDARY
FIXED_END, 1, 3, 0.0
FIXED_END, 4, 6, 0.0
*CLOAD
FREE_END, 2, -500.0
*NODE PRINT, NSET=ALL_NODES
U, RF
*EL PRINT, ELSET=BEAM_ELEMENTS
S, E, SF, SM
*END STEP
