*HEADING
Contact Model for ADB Testing — Two Blocks Pressing Together
*NODE, NSET=ALL_NODES
1, 0.0, 0.0, 0.0
2, 10.0, 0.0, 0.0
3, 10.0, 10.0, 0.0
4, 0.0, 10.0, 0.0
5, 0.0, 0.0, 10.0
6, 10.0, 0.0, 10.0
7, 10.0, 10.0, 10.0
8, 0.0, 10.0, 10.0
9, 1.0, 1.0, 5.0
10, 9.0, 1.0, 5.0
11, 9.0, 9.0, 5.0
12, 1.0, 9.0, 5.0
13, 1.0, 1.0, 15.0
14, 9.0, 1.0, 15.0
15, 9.0, 9.0, 15.0
16, 1.0, 9.0, 15.0
*NSET, NSET=BOTTOM_FIXED
1, 2, 3, 4
*NSET, NSET=TOP_LOADED
13, 14, 15, 16
*NSET, NSET=CONTACT_SLAVE
9, 10, 11, 12
*NSET, NSET=CONTACT_MASTER
13, 14, 15, 16
*ELEMENT, TYPE=C3D8R, ELSET=ALL_ELEMENTS
1, 1, 2, 3, 4, 5, 6, 7, 8
2, 9, 10, 11, 12, 13, 14, 15, 16
*ELSET, ELSET=BOTTOM_BLOCK
1
*ELSET, ELSET=TOP_BLOCK
2
*SOLID SECTION, ELSET=ALL_ELEMENTS, MATERIAL=STEEL
*MATERIAL, NAME=STEEL
*ELASTIC
210000.0, 0.3
*SURFACE, NAME=BOTTOM_TOP_SURF
8, S6
9, S6
10, S6
11, S6
*SURFACE, NAME=TOP_BOTTOM_SURF
12, S4
13, S4
14, S4
15, S4
*CONTACT PAIR, INTERACTION=FRICTIONLESS
TOP_BOTTOM_SURF, BOTTOM_TOP_SURF
*SURFACE INTERACTION, NAME=FRICTIONLESS
*FRICTION
0.0
*STEP, NAME=Step-1
*STATIC
0.1, 1.0, 0.01, 1.0
*BOUNDARY
BOTTOM_FIXED, 1, 3, 0.0
*CLOAD
TOP_LOADED, 3, -1000.0
*NODE PRINT, NSET=CONTACT_SLAVE
U, RF
*NODE PRINT, NSET=CONTACT_MASTER
U, RF
*EL PRINT, ELSET=ALL_ELEMENTS
S
*CONTACT PRINT, MASTER=TOP_BOTTOM_SURF, SLAVE=BOTTOM_TOP_SURF
CFORCE, CSTRESS, CDISP
*END STEP
