*HEADING
Simple 2D Truss Model for ADB Testing
*NODE, NSET=ALL_NODES
1, 0.0, 0.0, 0.0
2, 100.0, 0.0, 0.0
3, 50.0, 86.6025, 0.0
4, 200.0, 0.0, 0.0
5, 150.0, 86.6025, 0.0
*NSET, NSET=SUPPORT
1, 4
*NSET, NSET=TOP_NODES
3, 5
*NSET, NSET=MIDDLE
2
*ELEMENT, TYPE=T2D2, ELSET=ALL_ELEMENTS
1, 1, 2
2, 2, 3
3, 1, 3
4, 2, 4
5, 3, 4
6, 3, 5
7, 4, 5
*ELSET, ELSET=BOTTOM_CHORD
1, 4
*ELSET, ELSET=TOP_CHORD
6, 7
*ELSET, ELSET=DIAGONALS
2, 3, 5
*MATERIAL, NAME=STEEL
*ELASTIC
210000.0, 0.3
*SOLID SECTION, ELSET=ALL_ELEMENTS, MATERIAL=STEEL
100.0
*STEP, NAME=Step-1
*STATIC
1.0, 1.0, 0.1, 1.0
*BOUNDARY
SUPPORT, 1, 3, 0.0
*CLOAD
TOP_NODES, 2, -1000.0
*NODE PRINT, NSET=ALL_NODES
U, RF
*EL PRINT, ELSET=ALL_ELEMENTS
S, E
*END STEP
